
Circuit: * lab1: circuit analysis methods

Doing analysis at TEMP = 27.000000 and TNOM = 27.000000


No. of Data Rows : 1


************************************************
O P E R A T I N G   P O I N T   A N A L Y S I S
************************************************

op_TAB
@gb[i] = -2.00589e-01
@id[current] = 1.017967e+00
@r1[i] = 1.915709e-01
@r2[i] = -2.00589e-01
@r3[i] = -9.01783e-03
@r4[i] = 1.164729e+00
@r5[i] = -1.21856e+00
@r6[i] = 9.731579e-01
@r7[i] = 9.731579e-01
v(1) = 8.030092e+00
v(2) = 7.833907e+00
v(3) = 7.417135e+00
v(4) = 2.989101e+00
v(5) = 7.861734e+00
v(6) = 1.163284e+01
v(7) = 9.951293e-01
v(8) = 2.989101e+00
hc#branch = 4.480947e-02
va#branch = -1.91571e-01
vfalsa#branch = 9.731579e-01
op_END
ngspice-31 done
