
Circuit: * lab2: rc circuit analysis

Doing analysis at TEMP = 27.000000 and TNOM = 27.000000


No. of Data Rows : 1


************************************************
O P E R A T I N G   P O I N T   A N A L Y S I S
************************************************

op_TAB
hd#branch = -9.33872e-04
vfalsa#branch = 9.338720e-04
vs#branch = -2.42827e-04
@gb[i] = -2.54035e-04
@r1[i] = 2.428275e-04
@r2[i] = -2.54035e-04
@r3[i] = -1.12071e-05
@r4[i] = 1.176699e-03
@r5[i] = -2.54035e-04
@r6[i] = 9.338720e-04
@r7[i] = 9.338720e-04
v(1) = 5.046144e+00
v(2) = 4.802883e+00
v(3) = 4.276251e+00
v(4) = 0.000000e+00
v(5) = 4.837826e+00
v(6) = 5.626502e+00
v(7) = -1.93473e+00
v(8) = -2.90916e+00
hd#branch = -9.33872e-04
vfalsa#branch = 9.338720e-04
vs#branch = -2.42827e-04
op_END
ngspice-31 done
