
Circuit: * lab2: rc circuit analysis

Doing analysis at TEMP = 27.000000 and TNOM = 27.000000


No. of Data Rows : 1


************************************************
O P E R A T I N G   P O I N T   A N A L Y S I S
************************************************

op_TAB
@gb[i] = 0.000000e+00
@r1[i] = 0.000000e+00
@r2[i] = 0.000000e+00
@r3[i] = 0.000000e+00
@r4[i] = 0.000000e+00
@r5[i] = -2.74936e-03
@r6[i] = 0.000000e+00
@r7[i] = 0.000000e+00
v(2) = 0.000000e+00
v(3) = 0.000000e+00
v(4) = 0.000000e+00
v(5) = 0.000000e+00
v(6) = 8.535665e+00
v(7) = 0.000000e+00
v(8) = 0.000000e+00
hd#branch = 2.749362e-03
vfalsa#branch = 0.000000e+00
vx#branch = -2.74936e-03
op_END
ngspice-31 done
